Near Ideal buck converter circuit
.include ../libs/nabla.lib

* Define the model of a near ideal voltage controled
.model sw1 sw vt=1 vh=0.2 ron=.01 roff=100k

* voltage source and pulse generator
VCC vcc 0 dc 10 ac 1

* Boost topology circuit
L1 vcc out 100u
* diode
Xd 0 sw_node PMEG4050EP
CF out 0 480u
RL out 0 10

.control
set filetype=ascii
ac dec 100 1 1meg
plot ph(out)
write boost-circ-freq.ngdat out
.endc
